6
dsjfh header string for fiest frame
O     1.51703313 -0.00000050  0.12285041
H     0.56020038  0.00000217 -0.05282521
H     1.91973204  0.00000210 -0.75393379
O    -1.39007118  0.00000026 -0.11240419
H    -1.74781378 -0.76268576  0.36159245
H    -1.74781423  0.76268342  0.36159673
18
-17893874.878789 is a fake energy!
O     0.87715956  1.70409266  0.47858616
H     1.70199937  1.19722607  0.29220265
H     1.16181787  2.60891668  0.65546661
O    -0.82054445  0.61636011 -1.63123430
H    -0.26682713  1.17302621 -1.05309865
H    -0.36885969 -0.24447946 -1.58195952
O    -0.64071556 -0.48854013  1.64104190
H    -0.19915392  0.37247798  1.52856380
H    -1.54433112 -0.32408724  1.29835600
O     0.57630762 -1.69154092 -0.42866929
H     0.43417462 -2.64420081 -0.48595869
H     0.08911917 -1.38946090  0.38589939
O     2.81159896 -0.10395953 -0.18689424
H     3.46294039 -0.45173380  0.43482057
H     2.15849520 -0.82915775 -0.30211113
O    -2.88801599 -0.06633690  0.05761427
H    -2.29024563  0.26724676 -0.65069518
H    -3.66545029  0.50362404  0.03495814
60
-0.3087579552115108
O 1.4959126060158092 -2.250747542553307 3.0427249605785747
H 2.1258036133731646 -1.6865424232226296 2.5560076592915353
H 2.012770175236872 -2.765109007080357 3.656430335341451
O 0.0635515713206533 -3.4825376191709774 0.9246192792584254
H 0.5513915932102168 -3.0818991383914462 1.6561915892473589
H -0.8348619645437612 -3.145031392572736 0.9863752702625992
O -0.5239892511392196 -0.3638195899482366 3.560575233579702
H 0.16529964915319453 -1.0247268450792517 3.428791941688572
H -0.11045747502360709 0.5050185762342582 3.445321184817462
O 3.1991402825609168 -0.6913304208326182 1.6957775253141059
H 3.3311172507974613 -0.9477264874730644 0.7695888277196457
H 3.152354659888842 0.2694071519073669 1.7058371716072207
O -2.739811040633886 -2.6681676415487052 1.075263772414169
H -2.8606198238910503 -1.9939686179412222 1.7596650417014383
H -3.160990193832901 -3.4635813281470242 1.3959841458353188
O -3.062434069071572 -0.6567163826019432 2.9958077227956377
H -2.114459367441675 -0.5403864120464043 3.20973058328462
H -3.5168443179945963 -0.7772184091877588 3.824725728993484
O 1.435243190297916 -3.149344612676907 -1.4792352031192693
H 0.9724951391818907 -3.3243197306156786 -0.646340854280876
H 0.753265154719855 -2.9106684062095414 -2.1145956599304045
O 0.5788079754740438 2.0959980805961016 3.084307565826636
H 1.412450453205445 2.1355844602942455 2.6033183735804553
H -0.06461252894244703 2.5737090333714496 2.5415002081650546
O 3.431653701224281 -1.3229578346492954 -0.9598410715856478
H 2.7719140713147445 -2.0060455361282767 -1.1597969255937108
H 3.300212479738434 -0.630242393495261 -1.6122527233782842
O 3.031366680575016 2.1789142183745245 1.57739826170788
H 2.937590168935709 2.3941403137969837 0.6378219636264444
H 3.778596278200444 2.6799989429314284 1.8980062519380267
O -2.6998683989932615 -1.778099017681404 -1.6074084510381155
H -2.7080290659121693 -2.10835269260869 -0.699989022087618
H -3.0410404621895952 -0.8787947880576338 -1.5693035020021022
O -3.626816447160687 1.4128106534414588 1.233636103021111
H -3.4324392729616906 0.6944316681058377 1.8547508743011378
H -3.9071600726786353 2.1624714675629795 1.7574639875400053
O -0.6637115737099886 -2.3596579805898283 -3.310301447474503
H -1.3991114700523082 -2.1838403740241947 -2.697993492972906
H -0.9546929431972854 -3.054692304204589 -3.8949072450184907
O -1.324452675253641 3.2136316974120986 1.3728820304001468
H -1.923345306567178 2.48052929838041 1.2090268137032592
H -0.8735015964624473 3.3735050563404734 0.5295762204425448
O 2.9979833056772613 0.7746915205330478 -2.948747921585067
H 2.092052226258073 0.5400072942205427 -3.221055061207975
H 3.57383019402539 0.5237729271016325 -3.6662640007634764
O 2.7704960603680986 2.8257668211125453 -1.1469846263926264
H 2.880664095107899 2.085396840817498 -1.7660138389009747
H 3.1830571482855787 3.584093648543759 -1.5554422615905172
O -3.727669725972309 0.9185539511449177 -1.4651426568276558
H -3.6878140998420785 1.1059408606166503 -0.5129985274848888
H -4.652811713907546 0.9168332191678987 -1.7021598112451817
O 0.4820425080373419 0.17548076305255791 -3.6687973680049253
H 0.1278441540986815 -0.7195806362288262 -3.5851503004566907
H -0.2428345764846339 0.7742692651249515 -3.4571279122437724
O -0.05450876568103124 3.442784694664827 -1.0742442704278852
H 0.8718079562018821 3.1797864287937374 -1.107012799761479
H -0.5092084444048542 2.936839227805397 -1.7570768296341297
O -1.6246602224726272 1.9751862479146263 -2.9909245510427147
H -2.3520982602793232 1.6129067304836693 -2.4636900756736924
H -2.02389199572204 2.51577378047233 -3.6699844768179752
